*heading
 e012/case-1
*preprint, echo=yes, model=yes, history=yes
**------------------------------------------------
*include, input=job1.node
*include, input=job1.elem
**
*elset, elset=outele
 1
*nset, nset=fixnod
 1
*nset, nset=loadnod
 51
**------------------------------------------------
*beam section, section=rect, elset=alle, material=mat1
 10., 10.
 0., 0., -1.
**------------------------------------------------
*material, name=mat1
*elastic
 200000.
**------------------------------------------------
*boundary
 fixnod, 1, 2, 0.
 fixnod, 6, 6, 0.
**------------------------------------------------ step-1 --
*step
*static
 1., 1.
**------------------------------------------------
*cload
 loadnod, 2, -10.
**------------------------------------------------
*output, field, variable=preselect
*output, history
*element output, elset=outele
 s, e
*node output, nset=loadnod
 u, cf
*el print, elset=outele
 s
 sf
*node print, nset=loadnod
 u, rf
*end step

